.subckt data_reg_bank clk rst x_in_0 x_in_1 x_in_2 x_in_3 y_in_0 y_in_1 y_in_2 y_in_3 x_out_0 x_out_1 x_out_2 x_out_3 x_out_b_0 x_out_b_1 x_out_b_2 x_out_b_3 y_out_0 y_out_1 y_out_2 y_out_3 y_out_b_0 y_out_b_1 y_out_b_2 y_out_b_3 clk_div4_out clk_div4_out_b vdd vss


** Library name: final_project_local
** Cell name: data_reg_bank
** View name: av_extracted
c1 vdd vss 181.257e-18
c2 clk vss 101.165e-18
c3 rst vss 256.643e-18
c4 x_in_0 vss 9.56674e-18
c5 x_in_1 vss 8.92083e-18
c6 x_in_2 vss 9.56674e-18
c7 x_in_3 vss 8.94641e-18
c8 y_in_0 vss 438.192e-18
c9 y_in_1 vss 494.358e-18
c10 y_in_2 vss 494.369e-18
c11 y_in_3 vss 438.452e-18
c12 clk_div4_out vss 121.735e-18
c13 clk_div4_out_b vss 157.065e-18
c14 x_out_0 vss 187.294e-18
c15 x_out_1 vss 186.127e-18
c16 x_out_2 vss 187.616e-18
c17 x_out_3 vss 185.948e-18
c18 x_out_b_0 vss 155.079e-18
c19 x_out_b_1 vss 155.078e-18
c20 x_out_b_2 vss 155.079e-18
c21 x_out_b_3 vss 155.079e-18
c22 y_out_0 vss 35.8556e-18
c23 y_out_1 vss 38.8088e-18
c24 y_out_2 vss 38.807e-18
c25 y_out_3 vss 37.944e-18
c26 y_out_b_0 vss 105.536e-18
c27 y_out_b_1 vss 107.227e-18
c28 y_out_b_2 vss 107.229e-18
c29 y_out_b_3 vss 107.227e-18
c30 net7 vss 20.0926e-18
c31 net11 vss 21.793e-18
c32 net9 vss 31.6438e-18
c33 net10 vss 29.561e-18
c34 net3 vss 21.4174e-18
c35 net4 vss 16.5107e-18
c36 avs88 vss 195.269e-18
c37 i0__net10 vss 21.3377e-18
c38 i0__net9 vss 21.6046e-18
c39 i0__net8 vss 57.1298e-18
c40 i0__net11 vss 32.9291e-18
c41 i0__net1 vss 31.0739e-18
c42 i0__net7 vss 82.7703e-18
c43 i0__net6 vss 16.52e-18
c44 i0__net3 vss 28.9417e-18
c45 i0__i2__net5 vss 17.1191e-18
c46 i0__i2__net4 vss 113.401e-18
c47 i0__i2__net1 vss 18.0509e-18
c48 i0__i2__net2 vss 117.361e-18
c49 i0__i3__net5 vss 23.6687e-18
c50 i0__i3__net4 vss 109.189e-18
c51 i0__i3__net1 vss 26.5256e-18
c52 i0__i3__net2 vss 111.841e-18
c53 i7__net5 vss 19.924e-18
c54 i7__net4 vss 114.572e-18
c55 i7__net1 vss 20.8659e-18
c56 i7__net2 vss 114.023e-18
c57 i1__net5 vss 17.5366e-18
c58 i1__net4 vss 112.638e-18
c59 i1__net1 vss 18.4343e-18
c60 i1__net2 vss 115.972e-18
c61 i4__net5 vss 18.5658e-18
c62 i4__net4 vss 114.045e-18
c63 i4__net1 vss 18.8969e-18
c64 i4__net2 vss 115.452e-18
c65 i3__net5 vss 18.7278e-18
c66 i3__net4 vss 113.256e-18
c67 i3__net1 vss 19.4125e-18
c68 i3__net2 vss 116.298e-18
c69 i6__net5 vss 24.425e-18
c70 i6__net4 vss 109.694e-18
c71 i6__net1 vss 26.2872e-18
c72 i6__net2 vss 109.307e-18
c73 i2__net5 vss 24.0926e-18
c74 i2__net4 vss 108.727e-18
c75 i2__net1 vss 26.1676e-18
c76 i2__net2 vss 110.07e-18
c77 i5__net5 vss 24.4221e-18
c78 i5__net4 vss 108.151e-18
c79 i5__net1 vss 26.2874e-18
c80 i5__net2 vss 108.418e-18
c81 i8__net5 vss 24.0926e-18
c82 i8__net4 vss 108.001e-18
c83 i8__net1 vss 26.1676e-18
c84 i8__net2 vss 109.577e-18
c85 n15__net7 vss 23.915e-18
c86 n5__net11 vss 24.7755e-18
c87 n4__y_out_b_3 vss 27.6313e-18
c88 n1__y_out_b_2 vss 27.5946e-18
c89 n4__y_out_b_1 vss 27.6313e-18
c90 n1__y_out_b_0 vss 27.5633e-18
c91 n16__net7 vss 18.865e-18
c92 n17__net11 vss 19.1502e-18
c93 n18__net7 vss 18.9853e-18
c94 n19__net11 vss 18.7421e-18
c95 n6__i7__net4 vss 29.9865e-18
c96 n4__i6__net4 vss 31.4048e-18
c97 n6__i4__net4 vss 29.9865e-18
c98 n4__i5__net4 vss 31.4048e-18
c99 n20__net7 vss 19.3126e-18
c100 n21__net11 vss 19.0498e-18
c101 n22__net7 vss 18.8717e-18
c102 n23__net11 vss 18.722e-18
c103 n5__i7__net5 vss 23.0202e-18
c104 n5__i4__net5 vss 23.0202e-18
c105 n14__net7 vss 24.7145e-18
c106 n24__net11 vss 24.3573e-18
c107 n6__i7__net5 vss 26.3916e-18
c108 n7__i6__net5 vss 26.3689e-18
c109 n6__i4__net5 vss 26.3916e-18
c110 n7__i5__net5 vss 26.3689e-18
c111 n29__net4 vss 25.9388e-18
c112 n4__net11 vss 30.1198e-18
c113 n21__net4 vss 16.1491e-18
c114 n23__net4 vss 16.1491e-18
c115 n25__net4 vss 16.1491e-18
c116 n27__net4 vss 16.1491e-18
c117 n41__net4 vss 17.9049e-18
c118 n43__net4 vss 14.9656e-18
c119 n4__net7 vss 28.7891e-18
c120 n2__i7__net4 vss 30.2474e-18
c121 n3__i6__net4 vss 29.744e-18
c122 n2__i4__net4 vss 30.2523e-18
c123 n3__i5__net4 vss 29.744e-18
c124 n45__net4 vss 19.1736e-18
c125 n47__net4 vss 15.0491e-18
c126 n48__net4 vss 25.6194e-18
c127 n50__net9 vss 16.6823e-18
c128 n52__net9 vss 16.6235e-18
c129 n54__net9 vss 16.6823e-18
c130 n56__net9 vss 16.6235e-18
c131 n33__rst vss 21.4431e-18
c132 n6__i0__net11 vss 37.6501e-18
c133 n34__rst vss 19.5045e-18
c134 n5__i7__net1 vss 26.8189e-18
c135 n5__i4__net1 vss 26.819e-18
c136 n15__i0__net8 vss 40.9128e-18
c137 n36__rst vss 18.8109e-18
c138 n6__i7__net1 vss 24.793e-18
c139 n7__i6__net1 vss 24.7685e-18
c140 n6__i4__net1 vss 24.7933e-18
c141 n7__i5__net1 vss 24.7688e-18
c142 n38__rst vss 15.7863e-18
c143 n40__rst vss 17.701e-18
c144 n5__i0__net10 vss 28.0174e-18
c145 n32__rst vss 21.8197e-18
c146 n5__i0__net9 vss 29.3676e-18
c147 n4__i0__net9 vss 27.8375e-18
c148 n2__i0__net11 vss 50.4804e-18
c149 n2__i7__net2 vss 28.9261e-18
c150 n3__i6__net2 vss 28.2135e-18
c151 n2__i4__net2 vss 28.9261e-18
c152 n3__i5__net2 vss 28.2135e-18
c153 n4__i0__net10 vss 30.6142e-18
c154 n10__i0__net8 vss 28.7659e-18
c155 n42__net10 vss 17.3312e-18
c156 n44__net10 vss 17.3312e-18
c157 n46__net10 vss 17.3312e-18
c158 n48__net10 vss 17.3312e-18
c159 n17__i0__net1 vss 26.7532e-18
c160 n6__i0__net8 vss 25.161e-18
c161 n6__i0__i2__net4 vss 29.6175e-18
c162 n4__i0__i3__net4 vss 31.2159e-18
c163 n4__x_out_b_3 vss 30.4966e-18
c164 n1__x_out_b_2 vss 30.4937e-18
c165 n4__x_out_b_1 vss 30.4966e-18
c166 n1__x_out_b_0 vss 30.4937e-18
c167 n5__i0__i2__net5 vss 21.9368e-18
c168 n6__i1__net4 vss 29.531e-18
c169 n4__i2__net4 vss 30.9417e-18
c170 n6__i3__net4 vss 29.5733e-18
c171 n4__i8__net4 vss 30.9417e-18
c172 n6__i0__i2__net5 vss 26.1816e-18
c173 n7__i0__i3__net5 vss 25.5608e-18
c174 n5__i1__net5 vss 22.6899e-18
c175 n5__i3__net5 vss 22.6899e-18
c176 n3__i0__net6 vss 16.3177e-18
c177 n6__i1__net5 vss 26.4304e-18
c178 n7__i2__net5 vss 26.4079e-18
c179 n6__i3__net5 vss 26.4304e-18
c180 n7__i8__net5 vss 26.4079e-18
c181 n2__i0__i2__net4 vss 31.0656e-18
c182 n3__i0__i3__net4 vss 30.862e-18
c183 n3__net4 vss 16.5107e-18
c184 n5__net4 vss 16.5107e-18
c185 n7__net4 vss 16.5107e-18
c186 n2__i1__net4 vss 31.2817e-18
c187 n3__i2__net4 vss 32.2929e-18
c188 n2__i3__net4 vss 32.329e-18
c189 n3__i8__net4 vss 32.2929e-18
c190 n4__i0__net3 vss 19.1438e-18
c191 n4__i0__net1 vss 19.0215e-18
c192 n5__i0__i2__net1 vss 26.671e-18
c193 n10__net9 vss 16.953e-18
c194 n12__net9 vss 16.8941e-18
c195 n14__net9 vss 16.953e-18
c196 n16__net9 vss 16.8941e-18
c197 n6__i0__i2__net1 vss 25.2364e-18
c198 n7__i0__i3__net1 vss 25.019e-18
c199 n5__i1__net1 vss 26.2939e-18
c200 n5__i3__net1 vss 26.2939e-18
c201 n6__i1__net1 vss 25.5452e-18
c202 n7__i2__net1 vss 25.5479e-18
c203 n6__i3__net1 vss 25.5725e-18
c204 n7__i8__net1 vss 25.5479e-18
c205 n2__i0__i2__net2 vss 29.964e-18
c206 n3__i0__i3__net2 vss 28.3945e-18
c207 n2__i1__net2 vss 31.2049e-18
c208 n3__i2__net2 vss 30.5513e-18
c209 n2__i3__net2 vss 31.2468e-18
c210 n3__i8__net2 vss 30.5094e-18
c211 n5__clk vss 16.938e-18
c212 n2__i0__net7 vss 19.2894e-18
c213 n3__clk vss 20.0697e-18
c214 n1__rst vss 39.0336e-18
c215 n2__net10 vss 17.4906e-18
c216 n4__net10 vss 17.3679e-18
c217 n6__net10 vss 17.4906e-18
c218 n8__net10 vss 17.3679e-18
c219 n5__net7 vss 16.895e-18
c220 n15__net11 vss 18.0538e-18
c221 n1__y_out_b_3 vss 21.1215e-18
c222 n4__y_out_b_2 vss 21.7364e-18
c223 n1__y_out_b_1 vss 21.8171e-18
c224 n4__y_out_b_0 vss 19.3005e-18
c225 n17__net7 vss 12.4378e-18
c226 n16__net11 vss 13.7909e-18
c227 n19__net7 vss 11.8577e-18
c228 n18__net11 vss 12.7931e-18
c229 n4__i7__net4 vss 26.0708e-18
c230 n6__i6__net4 vss 23.4387e-18
c231 n4__i4__net4 vss 25.0237e-18
c232 n6__i5__net4 vss 20.7763e-18
c233 n21__net7 vss 11.8327e-18
c234 n20__net11 vss 12.6114e-18
c235 n23__net7 vss 11.8165e-18
c236 n22__net11 vss 11.9394e-18
c237 n5__i6__net5 vss 17.1572e-18
c238 n5__i5__net5 vss 15.2713e-18
c239 n24__net7 vss 16.9975e-18
c240 n14__net11 vss 19.334e-18
c241 n7__i7__net5 vss 20.2153e-18
c242 n6__i6__net5 vss 22.5411e-18
c243 n7__i4__net5 vss 22.515e-18
c244 n6__i5__net5 vss 19.3045e-18
c245 n39__net4 vss 15.914e-18
c246 n40__net4 vss 14.7545e-18
c247 n3__i7__net4 vss 68.1767e-18
c248 n2__i6__net4 vss 71.8362e-18
c249 n3__i4__net4 vss 71.2793e-18
c250 n2__i5__net4 vss 71.5683e-18
c251 n42__net4 vss 15.5034e-18
c252 n44__net4 vss 16.4291e-18
c253 n46__net4 vss 12.0074e-18
c254 n38__net4 vss 18.1755e-18
c255 n58__net10 vss 25.2335e-18
c256 n60__net10 vss 22.6563e-18
c257 n62__net10 vss 22.5171e-18
c258 n64__net10 vss 25.7156e-18
c259 n23__rst vss 16.2383e-18
c260 n14__i0__net8 vss 52.1514e-18
c261 n35__rst vss 12.1281e-18
c262 n5__i6__net1 vss 19.0524e-18
c263 n5__i5__net1 vss 17.2551e-18
c264 n4__i0__net11 vss 26.4631e-18
c265 n37__rst vss 11.7846e-18
c266 n7__i7__net1 vss 19.6348e-18
c267 n6__i6__net1 vss 20.6473e-18
c268 n7__i4__net1 vss 20.654e-18
c269 n6__i5__net1 vss 18.6164e-18
c270 n39__rst vss 11.5414e-18
c271 n41__rst vss 11.8142e-18
c272 n7__i0__net10 vss 25.3019e-18
c273 n30__net3 vss 23.5603e-18
c274 n32__net3 vss 22.1025e-18
c275 n34__net3 vss 21.9763e-18
c276 n36__net3 vss 24.7831e-18
c277 n42__rst vss 17.1882e-18
c278 n7__i0__net9 vss 22.004e-18
c279 n3__i7__net2 vss 68.817e-18
c280 n2__i6__net2 vss 72.8273e-18
c281 n3__i4__net2 vss 72.6978e-18
c282 n2__i5__net2 vss 70.283e-18
c283 n13__i0__net8 vss 26.3888e-18
c284 n3__i0__net11 vss 47.3384e-18
c285 n34__net9 vss 25.1404e-18
c286 n36__net9 vss 21.7273e-18
c287 n38__net9 vss 21.5649e-18
c288 n40__net9 vss 24.4437e-18
c289 n14__i0__net1 vss 19.7309e-18
c290 n9__i0__net8 vss 23.2939e-18
c291 n4__i0__i2__net4 vss 22.8263e-18
c292 n6__i0__i3__net4 vss 24.9339e-18
c293 n1__x_out_b_3 vss 23.9143e-18
c294 n4__x_out_b_2 vss 21.8776e-18
c295 n1__x_out_b_1 vss 21.8154e-18
c296 n4__x_out_b_0 vss 20.2559e-18
c297 n5__i0__i3__net5 vss 19.2255e-18
c298 n4__i1__net4 vss 26.9997e-18
c299 n6__i2__net4 vss 23.4371e-18
c300 n4__i3__net4 vss 24.9679e-18
c301 n6__i8__net4 vss 21.8167e-18
c302 n7__i0__i2__net5 vss 20.4407e-18
c303 n6__i0__i3__net5 vss 21.7577e-18
c304 n5__i2__net5 vss 17.3213e-18
c305 n5__i8__net5 vss 15.6984e-18
c306 n7__i1__net5 vss 22.059e-18
c307 n6__i2__net5 vss 21.7179e-18
c308 n7__i3__net5 vss 21.6918e-18
c309 n6__i8__net5 vss 20.0975e-18
c310 n3__i0__i2__net4 vss 75.0121e-18
c311 n2__i0__i3__net4 vss 75.1516e-18
c312 n3__i1__net4 vss 72.9357e-18
c313 n2__i2__net4 vss 75.0074e-18
c314 n3__i3__net4 vss 74.9152e-18
c315 n2__i8__net4 vss 77.2334e-18
c316 n7__clk vss 24.9211e-18
c317 n4__i0__net7 vss 24.4821e-18
c318 n5__i0__i3__net1 vss 20.4802e-18
c319 n10__net10 vss 23.4819e-18
c320 n12__net10 vss 23.3407e-18
c321 n14__net10 vss 23.2074e-18
c322 n16__net10 vss 25.8388e-18
c323 n7__i0__i2__net1 vss 19.4936e-18
c324 n6__i0__i3__net1 vss 19.3631e-18
c325 n5__i2__net1 vss 19.6178e-18
c326 n5__i8__net1 vss 17.9723e-18
c327 n5__rst vss 24.5929e-18
c328 n7__rst vss 23.0364e-18
c329 n7__i1__net1 vss 22.8509e-18
c330 n6__i2__net1 vss 20.7895e-18
c331 n7__i3__net1 vss 20.7939e-18
c332 n6__i8__net1 vss 19.4796e-18
c333 n3__i0__i2__net2 vss 79.0104e-18
c334 n2__i0__i3__net2 vss 77.1314e-18
c335 n2__net3 vss 23.7786e-18
c336 n4__net3 vss 22.1992e-18
c337 n6__net3 vss 22.073e-18
c338 n8__net3 vss 24.3891e-18
c339 n3__i1__net2 vss 76.7795e-18
c340 n2__i2__net2 vss 80.5357e-18
c341 n3__i3__net2 vss 80.4061e-18
c342 n2__i8__net2 vss 85.5464e-18
c343 n2__i0__net3 vss 24.9608e-18
c344 n2__i0__net1 vss 25.8265e-18
c345 n1__clk vss 36.246e-18
c346 n3__rst vss 26.3475e-18
c347 n2__net9 vss 24.7199e-18
c348 n4__net9 vss 25.2594e-18
c349 n6__net9 vss 25.2594e-18
c350 n8__net9 vss 28.0281e-18
c351 n3__y_out_b_3 vss 60.4482e-18
c352 n3__y_out_b_2 vss 61.2402e-18
c353 n3__y_out_b_1 vss 61.2371e-18
c354 n3__y_out_b_0 vss 59.5916e-18
c355 n8__net7 vss 7.80877e-18
c356 n8__net11 vss 7.61985e-18
c357 n5__i7__net4 vss 19.7287e-18
c358 n5__i6__net4 vss 20.7306e-18
c359 n5__i4__net4 vss 20.7269e-18
c360 n5__i5__net4 vss 19.5741e-18
c361 n11__net7 vss 7.80877e-18
c362 n11__net11 vss 7.18244e-18
c363 n4__i7__net5 vss 71.8797e-18
c364 n4__i6__net5 vss 74.8258e-18
c365 n4__i4__net5 vss 75.0262e-18
c366 n4__i5__net5 vss 71.8608e-18
c367 n22__net4 vss 46.4205e-18
c368 n24__net4 vss 46.1507e-18
c369 n26__net4 vss 45.6987e-18
c370 n28__net4 vss 45.4476e-18
c371 n3__net11 vss 117.149e-18
c372 n32__net4 vss 9.55098e-18
c373 n3__net7 vss 8.88971e-18
c374 n35__net4 vss 8.98513e-18
c375 n57__net10 vss 29.9779e-18
c376 n49__net9 vss 25.916e-18
c377 n51__net9 vss 25.916e-18
c378 n59__net10 vss 30.6737e-18
c379 n61__net10 vss 30.669e-18
c380 n53__net9 vss 25.916e-18
c381 n55__net9 vss 25.916e-18
c382 n63__net10 vss 29.9711e-18
c383 n7__i0__net11 vss 30.902e-18
c384 n16__i0__net8 vss 30.6554e-18
c385 n26__rst vss 9.54685e-18
c386 n5__i0__net11 vss 203.95e-18
c387 n4__i7__net1 vss 89.5399e-18
c388 n4__i6__net1 vss 91.9939e-18
c389 n4__i4__net1 vss 91.9845e-18
c390 n4__i5__net1 vss 89.2451e-18
c391 n29__rst vss 6.90627e-18
c392 n6__i0__net10 vss 19.0009e-18
c393 n29__net3 vss 21.5884e-18
c394 n31__net3 vss 22.9014e-18
c395 n33__net3 vss 22.9014e-18
c396 n35__net3 vss 21.2579e-18
c397 n6__i0__net9 vss 19.0685e-18
c398 n3__i0__net9 vss 11.3501e-18
c399 n12__i0__net8 vss 193.877e-18
c400 n11__i0__net8 vss 24.3672e-18
c401 n3__i0__net10 vss 12.6284e-18
c402 n33__net9 vss 30.1314e-18
c403 n41__net10 vss 27.7813e-18
c404 n43__net10 vss 27.7813e-18
c405 n35__net9 vss 30.5009e-18
c406 n37__net9 vss 30.5534e-18
c407 n45__net10 vss 27.7813e-18
c408 n47__net10 vss 27.7813e-18
c409 n39__net9 vss 29.7641e-18
c410 n16__i0__net1 vss 58.226e-18
c411 n8__i0__net8 vss 59.1095e-18
c412 n5__i0__i2__net4 vss 19.5275e-18
c413 n5__i0__i3__net4 vss 20.3194e-18
c414 n3__x_out_b_3 vss 57.9113e-18
c415 n3__x_out_b_2 vss 59.0242e-18
c416 n3__x_out_b_1 vss 59.4831e-18
c417 n3__x_out_b_0 vss 56.6098e-18
c418 n5__i1__net4 vss 19.5209e-18
c419 n5__i2__net4 vss 20.8504e-18
c420 n5__i3__net4 vss 20.8543e-18
c421 n5__i8__net4 vss 19.7892e-18
c422 n4__i0__i2__net5 vss 73.6294e-18
c423 n4__i0__i3__net5 vss 77.1775e-18
c424 n2__i0__net6 vss 43.4881e-18
c425 n4__i0__net6 vss 46.3785e-18
c426 n4__i1__net5 vss 75.6138e-18
c427 n4__i2__net5 vss 77.6539e-18
c428 n4__i3__net5 vss 77.6522e-18
c429 n4__i8__net5 vss 74.894e-18
c430 n2__net4 vss 45.3402e-18
c431 n4__net4 vss 45.044e-18
c432 n6__net4 vss 44.6207e-18
c433 n8__net4 vss 43.8399e-18
c434 n6__clk vss 30.5152e-18
c435 n3__i0__net3 vss 26.8525e-18
c436 n3__i0__net1 vss 26.6537e-18
c437 n3__i0__net7 vss 31.2188e-18
c438 n9__net10 vss 30.0306e-18
c439 n9__net9 vss 26.0082e-18
c440 n11__net9 vss 26.0122e-18
c441 n11__net10 vss 30.6781e-18
c442 n13__net10 vss 30.673e-18
c443 n13__net9 vss 26.0122e-18
c444 n15__net9 vss 26.0122e-18
c445 n15__net10 vss 29.9905e-18
c446 n4__i0__i2__net1 vss 82.4511e-18
c447 n4__i0__i3__net1 vss 87.6707e-18
c448 n4__rst vss 22.0287e-18
c449 n6__rst vss 68.7956e-18
c450 n4__i1__net1 vss 85.6599e-18
c451 n4__i2__net1 vss 88.3338e-18
c452 n4__i3__net1 vss 88.3244e-18
c453 n4__i8__net1 vss 85.3848e-18
c454 n3__net3 vss 22.8113e-18
c455 n5__net3 vss 22.8113e-18
c456 n7__net3 vss 21.1677e-18
c457 n4__clk vss 114.022e-18
c458 n3__net10 vss 29.4931e-18
c459 n3__net9 vss 32.1228e-18
c460 n5__net9 vss 32.1677e-18
c461 n5__net10 vss 29.5632e-18
c462 n7__net10 vss 29.4931e-18
c463 n7__net9 vss 31.3929e-18
c464 n2__clk vss 32.8551e-18
c465 n2__rst vss 33.5597e-18
c466 n220__vdd vss 93.2019e-18
c467 n222__vdd vss 96.3268e-18
c468 n217__vdd vss 7.88231e-18
c469 n218__vdd vss 10.3342e-18
c470 n219__vdd vss 10.3342e-18
c471 n214__vdd vss 11.1587e-18
c472 n215__vdd vss 19.1477e-18
c473 n216__vdd vss 19.1477e-18
c474 n109__net10 vss 669.19e-18
c475 n110__net10 vss 683.664e-18
c476 n111__net10 vss 683.563e-18
c477 n112__net10 vss 608.658e-18
c478 n5__y_out_3 vss 72.8448e-18
c479 n5__y_out_2 vss 71.063e-18
c480 n5__y_out_1 vss 28.0583e-18
c481 n5__y_out_0 vss 28.0675e-18
c482 n39__net7 vss 20.7273e-18
c483 n38__net11 vss 11.9979e-18
c484 n10__y_out_b_3 vss 92.9981e-18
c485 n10__y_out_b_2 vss 92.841e-18
c486 n10__y_out_b_1 vss 63.0101e-18
c487 n10__y_out_b_0 vss 63.0101e-18
c488 n38__net7 vss 46.0824e-18
c489 n37__net11 vss 40.9869e-18
c490 n11__x_out_b_3 vss 722.157e-18
c491 n12__x_out_b_3 vss 103.437e-18
c492 n11__x_out_b_2 vss 102.904e-18
c493 n12__x_out_b_2 vss 722.24e-18
c494 n11__x_out_b_1 vss 722.1e-18
c495 n12__x_out_b_1 vss 103.437e-18
c496 n11__x_out_b_0 vss 102.904e-18
c497 n12__x_out_b_0 vss 722.604e-18
c498 n6__x_out_3 vss 129.244e-18
c499 n7__x_out_3 vss 465.933e-18
c500 n6__x_out_2 vss 465.766e-18
c501 n7__x_out_2 vss 132.416e-18
c502 n6__x_out_1 vss 130.206e-18
c503 n7__x_out_1 vss 465.929e-18
c504 n6__x_out_0 vss 465.766e-18
c505 n7__x_out_0 vss 132.84e-18
c506 n93__net9 vss 584.634e-18
c507 n94__net9 vss 530.717e-18
c508 n95__net9 vss 529.636e-18
c509 n96__net9 vss 484.187e-18
c510 n68__net3 vss 358.568e-18
c511 n69__net3 vss 370.079e-18
c512 n70__net3 vss 369.184e-18
c513 n71__net3 vss 327.106e-18
c514 n37__net7 vss 35.7933e-18
c515 n36__net11 vss 142.368e-18
c516 n64__net3 vss 1.02475e-15
c517 n65__net3 vss 1.02424e-15
c518 n66__net3 vss 1.03891e-15
c519 n67__net3 vss 1.04304e-15
c520 n46__rst vss 358.548e-18
c521 n105__net10 vss 1.10276e-15
c522 n106__net10 vss 1.10235e-15
c523 n107__net10 vss 1.12341e-15
c524 n108__net10 vss 1.123e-15
c525 n89__net9 vss 1.07511e-15
c526 n90__net9 vss 1.07438e-15
c527 n91__net9 vss 1.09713e-15
c528 n92__net9 vss 1.09724e-15
c529 n16__i0__net7 vss 132.334e-18
c530 n1__y_in_3 vss 286.054e-18
c531 n2__y_in_2 vss 295.709e-18
c532 n1__y_in_1 vss 295.59e-18
c533 n2__y_in_0 vss 280.269e-18
c534 n23__i0__net1 vss 102.331e-18
c535 n5__x_out_3 vss 423.867e-18
c536 n5__x_out_2 vss 423.884e-18
c537 n5__x_out_1 vss 423.867e-18
c538 n5__x_out_0 vss 423.884e-18
c539 n10__x_out_b_3 vss 713.811e-18
c540 n9__x_out_b_2 vss 714.015e-18
c541 n10__x_out_b_1 vss 675.174e-18
c542 n9__x_out_b_0 vss 675.221e-18
c543 n21__i0__net1 vss 86.228e-18
c544 n22__i0__net1 vss 246.055e-18
c545 n13__i0__net7 vss 87.7349e-18
c546 n14__i0__net7 vss 241.234e-18
c547 n10__net4 vss 698.682e-18
c548 n11__net4 vss 690.367e-18
c549 n14__net4 vss 677.134e-18
c550 n15__net4 vss 683.438e-18
c551 n7__vdd vss 31.7036e-18
c552 n8__vdd vss 36.0112e-18
c553 n9__vdd vss 36.0112e-18
c554 n25__net3 vss 658.662e-18
c555 n26__net3 vss 660.477e-18
c556 n27__net3 vss 679.757e-18
c557 n28__net3 vss 677.176e-18
c558 n37__net10 vss 241.559e-18
c559 n38__net10 vss 241.223e-18
c560 n39__net10 vss 258.825e-18
c561 n40__net10 vss 258.393e-18
c562 n8__i0__net7 vss 213.301e-18
c563 n29__net9 vss 536.083e-18
c564 n30__net9 vss 535.945e-18
c565 n31__net9 vss 515.475e-18
c566 n32__net9 vss 515.407e-18
c567 n12__i0__net1 vss 280.819e-18
c568 n13__rst vss 476.691e-18
c569 n5__x_in_3 vss 24.5966e-18
c570 n4__x_in_2 vss 25.3626e-18
c571 n5__x_in_1 vss 7.54691e-18
c572 n4__x_in_0 vss 7.37512e-18
c573 n102__net10 vss 47.378e-18
c574 n4__y_out_3 vss 22.6519e-18
c575 n4__y_out_2 vss 21.4416e-18
c576 n4__y_out_1 vss 64.3315e-18
c577 n4__y_out_0 vss 39.7628e-18
c578 n35__net11 vss 40.4686e-18
c579 n9__y_out_b_1 vss 81.4057e-18
c580 n9__y_out_b_0 vss 74.9175e-18
c581 n34__net11 vss 45.8027e-18
c582 n86__net9 vss 116.479e-18
c583 n62__net3 vss 81.7442e-18
c584 n34__net7 vss 16.6489e-18
c585 n32__net11 vss 264.51e-18
c586 n64__net4 vss 132.899e-18
c587 n67__net4 vss 185.405e-18
c588 n68__net4 vss 1.00153e-15
c589 n69__net4 vss 943.712e-18
c590 n70__net4 vss 943.61e-18
c591 n71__net4 vss 963.071e-18
c592 n58__net3 vss 20.0035e-18
c593 n59__net3 vss 511.736e-18
c594 n60__net3 vss 497.092e-18
c595 n61__net3 vss 495.524e-18
c596 n45__rst vss 102.324e-18
c597 n19__i0__net9 vss 136.922e-18
c598 n21__i0__net9 vss 121.358e-18
c599 n19__i0__net10 vss 139.111e-18
c600 n22__i0__net10 vss 206.751e-18
c601 n15__i0__net7 vss 101.719e-18
c602 n8__i0__net11 vss 100.327e-18
c603 n9__i0__net11 vss 108.296e-18
c604 n2__y_in_3 vss 151.435e-18
c605 n1__y_in_2 vss 151.42e-18
c606 n2__y_in_1 vss 49.4358e-18
c607 n1__y_in_0 vss 49.3657e-18
c608 n24__i0__net1 vss 322.548e-18
c609 n25__i0__net1 vss 38.9084e-18
c610 n18__i0__net8 vss 75.1438e-18
c611 n17__i0__net8 vss 359.232e-18
c612 n4__x_out_3 vss 52.7721e-18
c613 n4__x_out_2 vss 54.5441e-18
c614 n4__x_out_1 vss 87.6076e-18
c615 n4__x_out_0 vss 84.822e-18
c616 n9__x_out_b_3 vss 39.5796e-18
c617 n10__x_out_b_2 vss 38.8979e-18
c618 n9__x_out_b_1 vss 78.1851e-18
c619 n10__x_out_b_0 vss 77.4287e-18
c620 n9__net4 vss 641.035e-18
c621 n12__net4 vss 484.908e-18
c622 n13__net4 vss 498.591e-18
c623 n16__net4 vss 525.033e-18
c624 n2__vdd vss 23.3782e-18
c625 n3__vdd vss 23.962e-18
c626 n6__vdd vss 23.962e-18
c627 n21__net3 vss 19.688e-18
c628 n22__net3 vss 19.4164e-18
c629 n23__net3 vss 509.497e-18
c630 n24__net3 vss 508.789e-18
c631 n31__net10 vss 251.593e-18
c632 n35__net10 vss 234.533e-18
c633 n9__i0__net7 vss 114.64e-18
c634 n23__net9 vss 264.313e-18
c635 n27__net9 vss 283.468e-18
c636 n13__i0__net1 vss 108.332e-18
c637 n8__i0__net1 vss 487.385e-18
c638 n9__i0__net1 vss 106.97e-18
c639 n5__i0__net8 vss 155.351e-18
c640 n4__i0__net8 vss 529.052e-18
c641 n8__i0__net6 vss 764.494e-18
c642 n9__i0__net6 vss 780.195e-18
c643 n14__rst vss 442.408e-18
c644 n15__rst vss 277.684e-18
c645 n12__rst vss 25.6961e-18
c646 n4__x_in_1 vss 113.484e-18
c647 n5__x_in_0 vss 113.656e-18
c648 n2__y_out_3 vss 58.3189e-18
c649 n2__y_out_2 vss 58.5855e-18
c650 n2__y_out_1 vss 58.5766e-18
c651 n2__y_out_0 vss 55.899e-18
c652 n80__net9 vss 103.243e-18
c653 n96__net10 vss 29.0799e-18
c654 n32__net7 vss 112.811e-18
c655 n31__net11 vss 70.7506e-18
c656 n6__y_out_b_3 vss 83.8322e-18
c657 n7__y_out_b_2 vss 83.3052e-18
c658 n6__y_out_b_1 vss 32.1943e-18
c659 n7__y_out_b_0 vss 32.223e-18
c660 n77__net9 vss 123.185e-18
c661 n93__net10 vss 46.3411e-18
c662 n13__i7__net4 vss 87.1006e-18
c663 n13__i6__net4 vss 84.8561e-18
c664 n13__i4__net4 vss 84.4378e-18
c665 n13__i5__net4 vss 83.9437e-18
c666 n31__net7 vss 112.867e-18
c667 n30__net11 vss 70.8707e-18
c668 n74__net9 vss 116.816e-18
c669 n90__net10 vss 31.4873e-18
c670 n9__i7__net4 vss 70.6194e-18
c671 n9__i6__net4 vss 69.1321e-18
c672 n9__i4__net4 vss 68.7389e-18
c673 n9__i5__net4 vss 68.6624e-18
c674 n12__i7__net4 vss 107.974e-18
c675 n12__i6__net4 vss 108.545e-18
c676 n12__i4__net4 vss 108.148e-18
c677 n12__i5__net4 vss 108.333e-18
c678 n4__clk_div4_out vss 103.149e-18
c679 n14__i7__net5 vss 140.712e-18
c680 n14__i6__net5 vss 140.514e-18
c681 n14__i4__net5 vss 140.256e-18
c682 n14__i5__net5 vss 139.679e-18
c683 n56__net3 vss 22.4067e-18
c684 n60__net4 vss 109.138e-18
c685 n61__net4 vss 106.125e-18
c686 n62__net4 vss 106.36e-18
c687 n63__net4 vss 108.471e-18
c688 n29__net11 vss 125.625e-18
c689 n59__net4 vss 115.7e-18
c690 n4__clk_div4_out_b vss 136.979e-18
c691 n53__net3 vss 35.2257e-18
c692 n7__i7__net4 vss 146.217e-18
c693 n7__i6__net4 vss 146.149e-18
c694 n7__i4__net4 vss 146.188e-18
c695 n7__i5__net4 vss 145.77e-18
c696 n29__net7 vss 78.2804e-18
c697 n58__net4 vss 118.234e-18
c698 n30__net7 vss 157.917e-18
c699 n11__i7__net5 vss 113.918e-18
c700 n11__i6__net5 vss 112.054e-18
c701 n11__i4__net5 vss 113.266e-18
c702 n11__i5__net5 vss 112.08e-18
c703 n50__net3 vss 50.76e-18
c704 n85__net10 vss 196.592e-18
c705 n69__net9 vss 174.163e-18
c706 n70__net9 vss 173.092e-18
c707 n86__net10 vss 197.001e-18
c708 n87__net10 vss 196.944e-18
c709 n71__net9 vss 174.14e-18
c710 n72__net9 vss 173.092e-18
c711 n88__net10 vss 196.798e-18
c712 n56__net4 vss 118.93e-18
c713 n15__i0__net11 vss 137.629e-18
c714 n17__i0__net10 vss 150.732e-18
c715 n25__i0__net8 vss 237.692e-18
c716 n44__rst vss 129.042e-18
c717 n12__i7__net2 vss 200.348e-18
c718 n12__i6__net2 vss 200.272e-18
c719 n12__i4__net2 vss 200.284e-18
c720 n12__i5__net2 vss 200.291e-18
c721 n53__net4 vss 134.932e-18
c722 n14__i0__net11 vss 229.691e-18
c723 n43__rst vss 143.574e-18
c724 n15__i0__net10 vss 88.7786e-18
c725 n16__i7__net1 vss 111.497e-18
c726 n16__i6__net1 vss 111.285e-18
c727 n16__i4__net1 vss 111.036e-18
c728 n16__i5__net1 vss 111.172e-18
c729 n50__net4 vss 110.427e-18
c730 n38__net3 vss 496.332e-18
c731 n17__i0__net9 vss 251.613e-18
c732 n14__i7__net1 vss 251.394e-18
c733 n14__i6__net1 vss 251.068e-18
c734 n14__i4__net1 vss 251.332e-18
c735 n14__i5__net1 vss 251.068e-18
c736 n10__i0__net10 vss 170.875e-18
c737 n61__net9 vss 320.398e-18
c738 n63__net9 vss 320.495e-18
c739 n65__net9 vss 320.445e-18
c740 n67__net9 vss 320.173e-18
c741 n12__i0__net9 vss 54.2819e-18
c742 n77__net10 vss 279.862e-18
c743 n78__net10 vss 251.063e-18
c744 n79__net10 vss 250.849e-18
c745 n80__net10 vss 281.78e-18
c746 n81__net10 vss 281.588e-18
c747 n82__net10 vss 230.347e-18
c748 n83__net10 vss 230.194e-18
c749 n84__net10 vss 280.754e-18
c750 n28__net7 vss 270.608e-18
c751 n24__i0__net8 vss 293.404e-18
c752 n11__i0__net9 vss 71.5518e-18
c753 n62__net9 vss 283.944e-18
c754 n64__net9 vss 283.84e-18
c755 n66__net9 vss 260.973e-18
c756 n68__net9 vss 260.344e-18
c757 n13__i0__net11 vss 99.0114e-18
c758 n28__net11 vss 209.874e-18
c759 n9__i0__net9 vss 138.03e-18
c760 n4__i7__net2 vss 231.967e-18
c761 n4__i6__net2 vss 232.156e-18
c762 n4__i4__net2 vss 232.156e-18
c763 n4__i5__net2 vss 231.777e-18
c764 n23__i0__net8 vss 118.46e-18
c765 n8__i0__net10 vss 71.6768e-18
c766 n11__i7__net1 vss 240.696e-18
c767 n11__i6__net1 vss 240.26e-18
c768 n11__i4__net1 vss 240.408e-18
c769 n11__i5__net1 vss 240.26e-18
c770 n66__net10 vss 146.448e-18
c771 n70__net10 vss 178.661e-18
c772 n72__net10 vss 146.393e-18
c773 n76__net10 vss 178.661e-18
c774 n18__i0__net7 vss 47.3095e-18
c775 n11__i0__net11 vss 44.8734e-18
c776 n57__net9 vss 252.98e-18
c777 n58__net9 vss 250.993e-18
c778 n59__net9 vss 251.898e-18
c779 n60__net9 vss 251.069e-18
c780 n4__y_in_3 vss 89.5842e-18
c781 n4__y_in_2 vss 88.4117e-18
c782 n4__y_in_1 vss 190.451e-18
c783 n4__y_in_0 vss 190.466e-18
c784 n27__i0__net1 vss 51.5957e-18
c785 n21__i0__net8 vss 32.1284e-18
c786 n2__x_out_3 vss 80.2436e-18
c787 n2__x_out_2 vss 79.5742e-18
c788 n2__x_out_1 vss 45.1064e-18
c789 n2__x_out_0 vss 45.0614e-18
c790 n13__i0__i2__net4 vss 94.9799e-18
c791 n13__i0__i3__net4 vss 94.9728e-18
c792 n6__x_out_b_3 vss 43.7112e-18
c793 n7__x_out_b_2 vss 43.5285e-18
c794 n6__x_out_b_1 vss 43.5285e-18
c795 n7__x_out_b_0 vss 43.5693e-18
c796 n9__i0__i2__net4 vss 73.5744e-18
c797 n9__i0__i3__net4 vss 77.5414e-18
c798 n12__i0__i2__net4 vss 111.674e-18
c799 n12__i0__i3__net4 vss 112.452e-18
c800 n13__i1__net4 vss 87.742e-18
c801 n13__i2__net4 vss 88.493e-18
c802 n13__i3__net4 vss 85.3142e-18
c803 n13__i8__net4 vss 86.1544e-18
c804 n14__i0__i2__net5 vss 140.036e-18
c805 n14__i0__i3__net5 vss 140.453e-18
c806 n9__i1__net4 vss 73.0645e-18
c807 n9__i2__net4 vss 75.2035e-18
c808 n9__i3__net4 vss 72.9342e-18
c809 n9__i8__net4 vss 72.5514e-18
c810 n12__i1__net4 vss 112.289e-18
c811 n12__i2__net4 vss 112.201e-18
c812 n12__i3__net4 vss 112.364e-18
c813 n12__i8__net4 vss 112.132e-18
c814 n10__i0__net6 vss 456.556e-18
c815 n11__i0__net6 vss 452.524e-18
c816 n14__i1__net5 vss 135.83e-18
c817 n14__i2__net5 vss 136.11e-18
c818 n14__i3__net5 vss 135.389e-18
c819 n14__i8__net5 vss 136.156e-18
c820 n17__net4 vss 70.9517e-18
c821 n18__net4 vss 70.9358e-18
c822 n19__net4 vss 71.3495e-18
c823 n20__net4 vss 68.594e-18
c824 n7__i0__i2__net4 vss 148.747e-18
c825 n7__i0__i3__net4 vss 150.889e-18
c826 n11__i0__i2__net5 vss 116.384e-18
c827 n11__i0__i3__net5 vss 113.735e-18
c828 n1__vdd vss 142.932e-18
c829 n4__vdd vss 235.605e-18
c830 n5__vdd vss 236.173e-18
c831 n7__i1__net4 vss 170.261e-18
c832 n7__i2__net4 vss 170.354e-18
c833 n7__i3__net4 vss 170.352e-18
c834 n7__i8__net4 vss 170.182e-18
c835 n18__clk vss 198.364e-18
c836 n11__i0__net3 vss 186.572e-18
c837 n20__i0__net1 vss 186.504e-18
c838 n12__i0__net7 vss 195.402e-18
c839 n11__i1__net5 vss 117.209e-18
c840 n11__i2__net5 vss 117.779e-18
c841 n11__i3__net5 vss 117.398e-18
c842 n11__i8__net5 vss 117.894e-18
c843 n53__net10 vss 192.35e-18
c844 n45__net9 vss 167.303e-18
c845 n46__net9 vss 167.199e-18
c846 n54__net10 vss 192.286e-18
c847 n55__net10 vss 192.124e-18
c848 n47__net9 vss 167.239e-18
c849 n48__net9 vss 167.199e-18
c850 n56__net10 vss 192.335e-18
c851 n5__i0__i2__net2 vss 204.405e-18
c852 n5__i0__i3__net2 vss 206.499e-18
c853 n16__i0__i2__net1 vss 106.538e-18
c854 n16__i0__i3__net1 vss 111.874e-18
c855 n5__i1__net2 vss 206.673e-18
c856 n5__i2__net2 vss 206.676e-18
c857 n5__i3__net2 vss 206.673e-18
c858 n5__i8__net2 vss 206.671e-18
c859 n17__rst vss 371.7e-18
c860 n19__rst vss 221.033e-18
c861 n14__i0__i2__net1 vss 252.537e-18
c862 n14__i0__i3__net1 vss 251.261e-18
c863 n10__i0__net3 vss 322.42e-18
c864 n19__i0__net1 vss 322.724e-18
c865 n16__i1__net1 vss 111.864e-18
c866 n16__i2__net1 vss 112.071e-18
c867 n16__i3__net1 vss 111.673e-18
c868 n16__i8__net1 vss 111.958e-18
c869 n15__clk vss 273.307e-18
c870 n16__clk vss 217.53e-18
c871 n10__i0__net7 vss 183.252e-18
c872 n11__i0__net7 vss 284.325e-18
c873 n10__net3 vss 509.593e-18
c874 n12__net3 vss 508.66e-18
c875 n14__i1__net1 vss 253.644e-18
c876 n14__i2__net1 vss 253.121e-18
c877 n14__i3__net1 vss 253.508e-18
c878 n14__i8__net1 vss 253.128e-18
c879 n9__i0__net3 vss 266.729e-18
c880 n18__i0__net1 vss 254.156e-18
c881 n41__net9 vss 320.702e-18
c882 n42__net9 vss 320.082e-18
c883 n43__net9 vss 320.488e-18
c884 n44__net9 vss 319.911e-18
c885 n49__net10 vss 281.954e-18
c886 n29__net10 vss 251.275e-18
c887 n50__net10 vss 281.872e-18
c888 n51__net10 vss 282.28e-18
c889 n33__net10 vss 233.774e-18
c890 n52__net10 vss 281.017e-18
c891 n4__i0__i2__net2 vss 236.069e-18
c892 n4__i0__i3__net2 vss 238.071e-18
c893 n21__net9 vss 264.443e-18
c894 n25__net9 vss 284.782e-18
c895 n11__i0__i2__net1 vss 235.001e-18
c896 n11__i0__i3__net1 vss 240.636e-18
c897 n13__clk vss 65.9282e-18
c898 n7__i0__net7 vss 88.2895e-18
c899 n4__i1__net2 vss 238.737e-18
c900 n4__i2__net2 vss 238.802e-18
c901 n4__i3__net2 vss 238.756e-18
c902 n4__i8__net2 vss 238.7e-18
c903 n8__i0__net3 vss 235.266e-18
c904 n10__i0__net1 vss 159.469e-18
c905 n6__i0__net1 vss 138.883e-18
c906 n2__i0__net8 vss 126.337e-18
c907 n11__i1__net1 vss 237.027e-18
c908 n11__i2__net1 vss 236.543e-18
c909 n11__i3__net1 vss 236.86e-18