.subckt Top_Level CK Reset x0 x1 x2 x3 y0 y1 y2 y3 Serial_out R_OUT vddio vdd vss

c1 vdd vss 3.361e-15
c2 ck vss 168.261e-18
c3 reset vss 203.737e-18
c4 x0 vss 9.60712e-18
c5 x1 vss 8.96121e-18
c6 x2 vss 9.60712e-18
c7 x3 vss 8.98678e-18
c8 y0 vss 227.549e-18
c9 y1 vss 279.82e-18
c10 y2 vss 279.832e-18
c11 y3 vss 242.187e-18
c12 r_out vss 1.06173e-15
c13 serial_out vss 49.6725e-18
c14 vddio vss 1.58567e-15
c15 serial_out_b_high vss 53.116e-18
c16 serial_out_b_high_buff vss 75.0592e-18
c17 ck4 vss 93.2156e-18
c18 reset_b vss 17.7248e-18
c19 shift vss 33.3982e-18
c20 reset_buff vss 21.8848e-18
c21 ck_b vss 28.9096e-18
c22 ck_buff vss 26.5674e-18
c23 y_out_2 vss 18.5219e-18
c24 x_out_1 vss 56.1667e-18
c25 y_out_1 vss 23.679e-18
c26 x_out_3 vss 50.386e-18
c27 y_out_3 vss 21.2741e-18
c28 r0 vss 104.731e-18
c29 r1 vss 26.3309e-18
c30 r2 vss 36.4124e-18
c31 y_out_0 vss 19.4176e-18
c32 x_out_0 vss 97.3253e-18
c33 x_out_2 vss 97.3253e-18
c34 r2_buff vss 171.829e-18
c35 net3 vss 71.8655e-18
c36 r1_buff vss 240.131e-18
c37 net4 vss 53.836e-18
c38 r0_buff vss 196.842e-18
c39 net8 vss 21.6782e-18
c40 net7 vss 19.2528e-18
c41 net14 vss 21.8468e-18
c42 net10 vss 50.0994e-18
c43 net6 vss 20.3954e-18
c44 net9 vss 68.8515e-18
c45 net13 vss 13.8799e-18
c46 i2__q vss 69.2281e-18
c47 i2__net76 vss 21.1694e-18
c48 i2__net73 vss 75.7598e-18
c49 i2__net1 vss 31.6483e-18
c50 i2__net77 vss 114.292e-18
c51 i2__net74 vss 24.8938e-18
c52 i2__net75 vss 113.256e-18
c53 i2__net79 vss 31.8761e-18
c54 i1__q vss 46.539e-18
c55 i1__net76 vss 18.6724e-18
c56 i1__net73 vss 25.3983e-18
c57 i1__net1 vss 22.7684e-18
c58 i1__net77 vss 117.54e-18
c59 i1__net74 vss 19.1442e-18
c60 i1__net75 vss 119.711e-18
c61 i1__net79 vss 31.1634e-18
c62 i0__q vss 76.4322e-18
c63 i0__net76 vss 24.0399e-18
c64 i0__net73 vss 80.3364e-18
c65 i0__net1 vss 30.2825e-18
c66 i0__net77 vss 112.046e-18
c67 i0__net74 vss 26.531e-18
c68 i0__net75 vss 112.56e-18
c69 i0__net79 vss 32.0412e-18
c70 i14__clk_div4_out_b vss 156.249e-18
c71 i14__net7 vss 20.305e-18
c72 i14__net11 vss 22.3205e-18
c73 i14__net9 vss 31.6438e-18
c74 i14__x_out_b_3 vss 30.4937e-18
c75 i14__net10 vss 29.561e-18
c76 i14__net3 vss 21.4174e-18
c77 i14__net4 vss 16.5107e-18
c78 i14__x_out_b_0 vss 28.9656e-18
c79 i14__y_out_b_0 vss 30.4937e-18
c80 i14__y_out_b_2 vss 28.0669e-18
c81 i14__x_out_b_2 vss 21.8154e-18
c82 i14__y_out_b_1 vss 22.7404e-18
c83 i14__y_out_b_3 vss 24.1155e-18
c84 i14__x_out_b_1 vss 21.3989e-18
c85 i3__avs50 vss 197.088e-18
c86 i14__i17__net10 vss 21.6249e-18
c87 i14__i17__net9 vss 22.1197e-18
c88 i14__i17__net8 vss 58.4991e-18
c89 i14__i17__net11 vss 32.7911e-18
c90 i14__i17__net1 vss 31.1122e-18
c91 i14__i17__net7 vss 28.5496e-18
c92 i14__i17__net6 vss 16.3976e-18
c93 i14__i17__net3 vss 28.9417e-18
c94 i14__i17__i2__net5 vss 17.4278e-18
c95 i14__i17__i2__net4 vss 116.515e-18
c96 i14__i17__i2__net1 vss 17.1811e-18
c97 i14__i17__i2__net2 vss 116.758e-18
c98 i14__i17__i3__net5 vss 24.8353e-18
c99 i14__i17__i3__net4 vss 112.457e-18
c100 i14__i17__i3__net1 vss 26.5256e-18
c101 i14__i17__i3__net2 vss 113.265e-18
c102 i14__i11__net5 vss 19.924e-18
c103 i14__i11__net4 vss 119.199e-18
c104 i14__i11__net1 vss 21.8584e-18
c105 i14__i11__net2 vss 118.31e-18
c106 i14__i13__net5 vss 18.9608e-18
c107 i14__i13__net4 vss 116.762e-18
c108 i14__i13__net1 vss 20.2696e-18
c109 i14__i13__net2 vss 118.427e-18
c110 i14__i15__net5 vss 18.5487e-18
c111 i14__i15__net4 vss 116.339e-18
c112 i14__i15__net1 vss 18.8969e-18
c113 i14__i15__net2 vss 117.905e-18
c114 i14__i10__net5 vss 18.7278e-18
c115 i14__i10__net4 vss 115.551e-18
c116 i14__i10__net1 vss 19.4125e-18
c117 i14__i10__net2 vss 118.751e-18
c118 i14__i14__net5 vss 24.425e-18
c119 i14__i14__net4 vss 111.992e-18
c120 i14__i14__net1 vss 26.2874e-18
c121 i14__i14__net2 vss 111.764e-18
c122 i14__i16__net5 vss 24.0926e-18
c123 i14__i16__net4 vss 111.026e-18
c124 i14__i16__net1 vss 26.1676e-18
c125 i14__i16__net2 vss 112.527e-18
c126 i14__i12__net5 vss 24.4762e-18
c127 i14__i12__net4 vss 110.168e-18
c128 i14__i12__net1 vss 26.2901e-18
c129 i14__i12__net2 vss 111.258e-18
c130 i14__i9__net5 vss 24.0926e-18
c131 i14__i9__net4 vss 110.526e-18
c132 i14__i9__net1 vss 26.1676e-18
c133 i14__i9__net2 vss 112.42e-18
c134 i13__net3 vss 25.651e-18
c135 i13__net23 vss 48.6792e-18
c136 i13__net17 vss 39.5137e-18
c137 i13__a0 vss 44.5296e-18
c138 i13__a1 vss 33.549e-18
c139 i13__a2 vss 31.5223e-18
c140 i13__a3 vss 41.1745e-18
c141 i13__net1 vss 35.1513e-18
c142 i13__net2 vss 43.6249e-18
c143 i13__net12 vss 34.1859e-18
c144 i13__net7 vss 45.5625e-18
c145 i13__net11 vss 40.9503e-18
c146 i13__net18 vss 32.5957e-18
c147 i13__i20__net3 vss 85.9308e-18
c148 i13__i20__net1 vss 26.4676e-18
c149 i13__i20__i4__net2 vss 18.0023e-18
c150 i13__i19__net3 vss 87.7249e-18
c151 i13__i19__net1 vss 23.8145e-18
c152 i13__i19__i4__net2 vss 20.6869e-18
c153 i13__i17__net3 vss 85.0196e-18
c154 i13__i17__net1 vss 25.0535e-18
c155 i13__i17__i4__net2 vss 19.7043e-18
c156 i13__i18__net3 vss 87.5787e-18
c157 i13__i18__net1 vss 26.6484e-18
c158 i13__i18__i4__net2 vss 20.5656e-18
c159 i13__i16__net3 vss 86.804e-18
c160 i13__i16__net1 vss 27.5924e-18
c161 i13__i16__i4__net2 vss 19.9575e-18
c162 i13__i15__net2 vss 19.1659e-18
c163 i13__i14__net2 vss 19.0016e-18
c164 i13__i13__net2 vss 20.4727e-18
c165 i13__i12__net2 vss 20.6068e-18
c166 i13__net6 vss 105.273e-18
c167 i9__net1 vss 28.5157e-18
c168 i9__i1__net1 vss 50.8258e-18
c169 i9__net2 vss 26.9181e-18
c170 i9__i4__net5 vss 22.1876e-18
c171 i9__i4__net4 vss 110.982e-18
c172 i9__i4__net1 vss 32.2288e-18
c173 i9__i4__net2 vss 110.506e-18
c174 i18__net5 vss 238.626e-18
c175 i18__net2 vss 144.241e-18
c176 i18__net1 vss 97.052e-18
c177 i18__net4 vss 229.458e-18
c178 i18__net3 vss 211.834e-18
c179 i12__bio vss 65.2048e-18
c180 i12__bcore_bar vss 139.122e-18
c181 n3__serial_out_b_high_buff vss 100.571e-18
c182 n5__serial_out_b_high vss 58.9234e-18
c183 n5__i18__net1 vss 109.027e-18
c184 n4__i18__net1 vss 117.27e-18
c185 n2__serial_out_b_high vss 53.5962e-18
c186 n7__i18__net2 vss 183.383e-18
c187 n8__i18__net2 vss 150.515e-18
c188 n10__i18__net2 vss 150.355e-18
c189 n2__i12__bio vss 47.5223e-18
c190 n6__i18__net2 vss 192.088e-18
c191 n30__i18__net3 vss 255.147e-18
c192 n27__i18__net3 vss 211.538e-18
c193 n24__i18__net3 vss 213.284e-18
c194 n21__i18__net3 vss 213.677e-18
c195 n18__i18__net3 vss 213.73e-18
c196 n15__i18__net3 vss 213.548e-18
c197 n12__i18__net3 vss 213.728e-18
c198 n9__i18__net3 vss 213.5e-18
c199 n6__i18__net3 vss 219.513e-18
c200 n3__i18__net3 vss 277.727e-18
c201 n122__i18__net4 vss 328.533e-18
c202 n115__i18__net4 vss 265.724e-18
c203 n112__i18__net4 vss 258.639e-18
c204 n105__i18__net4 vss 259.179e-18
c205 n102__i18__net4 vss 260.145e-18
c206 n97__i18__net4 vss 259.745e-18
c207 n90__i18__net4 vss 259.979e-18
c208 n85__i18__net4 vss 259.805e-18
c209 n82__i18__net4 vss 259.997e-18
c210 n75__i18__net4 vss 259.735e-18
c211 n70__i18__net4 vss 260.539e-18
c212 n65__i18__net4 vss 259.505e-18
c213 n61__i18__net4 vss 260.459e-18
c214 n55__i18__net4 vss 259.619e-18
c215 n50__i18__net4 vss 260.13e-18
c216 n47__i18__net4 vss 255.74e-18
c217 n42__i18__net4 vss 278.875e-18
c218 n39__i18__net4 vss 256.237e-18
c219 n36__i18__net4 vss 279.779e-18
c220 n33__i18__net4 vss 260.361e-18
c221 n30__i18__net4 vss 261.057e-18
c222 n27__i18__net4 vss 260.781e-18
c223 n24__i18__net4 vss 259.459e-18
c224 n21__i18__net4 vss 260.237e-18
c225 n18__i18__net4 vss 258.958e-18
c226 n15__i18__net4 vss 258.733e-18
c227 n12__i18__net4 vss 260.704e-18
c228 n9__i18__net4 vss 399.298e-18
c229 n6__i18__net4 vss 267.74e-18
c230 n3__i18__net4 vss 305.98e-18
c231 n472__i18__net5 vss 323.756e-18
c232 n465__i18__net5 vss 287.217e-18
c233 n460__i18__net5 vss 277.959e-18
c234 n455__i18__net5 vss 280.341e-18
c235 n452__i18__net5 vss 278.074e-18
c236 n445__i18__net5 vss 277.239e-18
c237 n442__i18__net5 vss 279.823e-18
c238 n437__i18__net5 vss 277.976e-18
c239 n430__i18__net5 vss 279.745e-18
c240 n425__i18__net5 vss 278.019e-18
c241 n421__i18__net5 vss 279.928e-18
c242 n415__i18__net5 vss 277.773e-18
c243 n410__i18__net5 vss 280.201e-18
c244 n407__i18__net5 vss 279.859e-18
c245 n400__i18__net5 vss 278.62e-18
c246 n397__i18__net5 vss 278.856e-18
c247 n392__i18__net5 vss 277.986e-18
c248 n387__i18__net5 vss 277.848e-18
c249 n380__i18__net5 vss 280.654e-18
c250 n377__i18__net5 vss 278.419e-18
c251 n370__i18__net5 vss 280.838e-18
c252 n367__i18__net5 vss 278.33e-18
c253 n362__i18__net5 vss 279.064e-18
c254 n357__i18__net5 vss 278.501e-18
c255 n350__i18__net5 vss 279.268e-18
c256 n347__i18__net5 vss 277.812e-18
c257 n340__i18__net5 vss 279.742e-18
c258 n337__i18__net5 vss 277.916e-18
c259 n330__i18__net5 vss 280.404e-18
c260 n327__i18__net5 vss 279.852e-18
c261 n322__i18__net5 vss 278.559e-18
c262 n315__i18__net5 vss 279.173e-18
c263 n312__i18__net5 vss 277.831e-18
c264 n305__i18__net5 vss 278.12e-18
c265 n300__i18__net5 vss 280.897e-18
c266 n295__i18__net5 vss 278.497e-18
c267 n290__i18__net5 vss 280.812e-18
c268 n285__i18__net5 vss 278.397e-18
c269 n280__i18__net5 vss 279.014e-18
c270 n277__i18__net5 vss 277.902e-18
c271 n270__i18__net5 vss 279.883e-18
c272 n267__i18__net5 vss 278.034e-18
c273 n260__i18__net5 vss 280.408e-18
c274 n255__i18__net5 vss 279.909e-18
c275 n252__i18__net5 vss 278.617e-18
c276 n247__i18__net5 vss 278.993e-18
c277 n242__i18__net5 vss 277.956e-18
c278 n237__i18__net5 vss 290.544e-18
c279 n230__i18__net5 vss 280.716e-18
c280 n225__i18__net5 vss 278.494e-18
c281 n220__i18__net5 vss 280.86e-18
c282 n216__i18__net5 vss 278.4e-18
c283 n210__i18__net5 vss 278.989e-18
c284 n205__i18__net5 vss 278.506e-18
c285 n201__i18__net5 vss 279.269e-18
c286 n195__i18__net5 vss 277.845e-18
c287 n190__i18__net5 vss 279.818e-18
c288 n187__i18__net5 vss 278.088e-18
c289 n181__i18__net5 vss 280.329e-18
c290 n175__i18__net5 vss 279.863e-18
c291 n172__i18__net5 vss 278.516e-18
c292 n166__i18__net5 vss 279.173e-18
c293 n162__i18__net5 vss 277.831e-18
c294 n155__i18__net5 vss 270.592e-18
c295 n150__i18__net5 vss 273.369e-18
c296 n145__i18__net5 vss 270.969e-18
c297 n140__i18__net5 vss 273.285e-18
c298 n137__i18__net5 vss 270.87e-18
c299 n131__i18__net5 vss 279.668e-18
c300 n125__i18__net5 vss 271.742e-18
c301 n122__i18__net5 vss 270.407e-18
c302 n117__i18__net5 vss 270.179e-18
c303 n112__i18__net5 vss 270.612e-18
c304 n105__i18__net5 vss 273.205e-18
c305 n102__i18__net5 vss 270.875e-18
c306 n97__i18__net5 vss 272.593e-18
c307 n92__i18__net5 vss 270.464e-18
c308 n87__i18__net5 vss 269.82e-18
c309 n80__i18__net5 vss 272.217e-18
c310 n75__i18__net5 vss 270.455e-18
c311 n70__i18__net5 vss 280.524e-18
c312 n65__i18__net5 vss 279.96e-18
c313 n62__i18__net5 vss 278.367e-18
c314 n55__i18__net5 vss 273.079e-18
c315 n52__i18__net5 vss 269.664e-18
c316 n45__i18__net5 vss 269.858e-18
c317 n42__i18__net5 vss 269.378e-18
c318 n39__i18__net5 vss 270.288e-18
c319 n36__i18__net5 vss 269.214e-18
c320 n33__i18__net5 vss 271.82e-18
c321 n30__i18__net5 vss 269.588e-18
c322 n27__i18__net5 vss 271.625e-18
c323 n24__i18__net5 vss 269.21e-18
c324 n21__i18__net5 vss 268.661e-18
c325 n18__i18__net5 vss 271.229e-18
c326 n15__i18__net5 vss 360.121e-18
c327 n12__i18__net5 vss 271.763e-18
c328 n9__i18__net5 vss 270.985e-18
c329 n6__i18__net5 vss 277.366e-18
c330 n3__i18__net5 vss 308.854e-18
c331 n6__net6 vss 21.7259e-18
c332 n8__net7 vss 15.6768e-18
c333 n7__net6 vss 14.7703e-18
c334 n8__net8 vss 14.7595e-18
c335 n10__net7 vss 20.4601e-18
c336 n9__net6 vss 18.5962e-18
c337 n10__net8 vss 18.6845e-18
c338 n10__r0 vss 29.7397e-18
c339 n8__r2 vss 26.3104e-18
c340 n13__serial_out vss 37.9869e-18
c341 n7__serial_out vss 24.0358e-18
c342 n11__net4 vss 26.3101e-18
c343 n6__net3 vss 26.3464e-18
c344 n4__i2__net77 vss 28.5156e-18
c345 n6__i1__net77 vss 30.3719e-18
c346 n4__i0__net77 vss 31.65e-18
c347 n5__i1__net76 vss 22.5995e-18
c348 n7__i2__net76 vss 23.587e-18
c349 n6__i1__net76 vss 26.3822e-18
c350 n7__i0__net76 vss 26.0801e-18
c351 n15__reset_b vss 17.5032e-18
c352 n17__reset_b vss 16.821e-18
c353 n19__reset_b vss 16.6115e-18
c354 n3__i2__net77 vss 31.3451e-18
c355 n2__i1__net77 vss 30.8354e-18
c356 n3__i0__net77 vss 30.4388e-18
c357 n8__i13__net7 vss 25.7384e-18
c358 n9__i13__net18 vss 19.8659e-18
c359 n26__ck_b vss 16.6379e-18
c360 n28__ck_b vss 17.9829e-18
c361 n30__ck_b vss 17.8988e-18
c362 n8__i13__net18 vss 22.74e-18
c363 n5__i1__net74 vss 26.8843e-18
c364 n7__i2__net74 vss 23.4481e-18
c365 n6__i1__net74 vss 26.2686e-18
c366 n7__i0__net74 vss 26.1803e-18
c367 n4__i13__i20__net1 vss 27.6354e-18
c368 n4__i13__net18 vss 44.5605e-18
c369 n4__i13__net7 vss 33.9724e-18
c370 n3__i2__net75 vss 30.6867e-18
c371 n2__i1__net75 vss 32.9971e-18
c372 n3__i0__net75 vss 31.2141e-18
c373 n17__ck_buff vss 19.3261e-18
c374 n19__ck_buff vss 17.747e-18
c375 n21__ck_buff vss 17.7148e-18
c376 n8__i13__net11 vss 23.4951e-18
c377 n5__i13__net12 vss 21.4128e-18
c378 n9__i13__net1 vss 19.7631e-18
c379 n9__i13__net2 vss 19.5709e-18
c380 n4__i1__net1 vss 30.8249e-18
c381 n8__i13__net1 vss 22.4259e-18
c382 n5__i13__net2 vss 22.4976e-18
c383 n4__i13__i19__net1 vss 26.4835e-18
c384 n20__shift vss 30.685e-18
c385 n22__shift vss 29.003e-18
c386 n24__shift vss 28.2864e-18
c387 n4__i13__net1 vss 44.0725e-18
c388 n4__i13__net11 vss 34.3888e-18
c389 n8__shift vss 31.4212e-18
c390 n9__shift vss 30.9343e-18
c391 n10__ck4 vss 22.1756e-18
c392 n15__ck4 vss 30.6848e-18
c393 n8__i13__a3 vss 23.2643e-18
c394 n5__i13__a1 vss 23.1745e-18
c395 n3__net14 vss 26.8425e-18
c396 n6__i9__net1 vss 16.034e-18
c397 n13__i13__a2 vss 19.7442e-18
c398 n13__i13__a0 vss 19.712e-18
c399 n5__net14 vss 17.144e-18
c400 n7__net14 vss 22.9061e-18
c401 n8__i13__a2 vss 22.9718e-18
c402 n5__i13__a0 vss 23.0273e-18
c403 n3__net13 vss 23.785e-18
c404 n5__net13 vss 16.439e-18
c405 n58__reset vss 24.9569e-18
c406 n4__i9__i4__net4 vss 32.2454e-18
c407 n7__net13 vss 26.902e-18
c408 n4__i13__i17__net1 vss 27.467e-18
c409 n4__i13__a2 vss 44.6173e-18
c410 n53__reset vss 26.7449e-18
c411 n29__ck vss 24.0293e-18
c412 n7__i9__i4__net5 vss 28.116e-18
c413 n4__i13__a3 vss 33.6165e-18
c414 n6__net10 vss 20.6705e-18
c415 n8__net10 vss 16.1015e-18
c416 n5__net10 vss 19.7542e-18
c417 n3__i9__i4__net4 vss 31.201e-18
c418 n4__y_out_3 vss 24.315e-18
c419 n5__net12 vss 22.7834e-18
c420 n4__ck_b vss 16.9192e-18
c421 n7__net12 vss 17.3076e-18
c422 n10__x_out_3 vss 19.6299e-18
c423 n10__x_out_1 vss 19.6677e-18
c424 n9__net12 vss 25.8056e-18
c425 n24__ck vss 28.1938e-18
c426 n7__i9__i4__net1 vss 25.6822e-18
c427 n9__x_out_3 vss 20.2628e-18
c428 n6__x_out_1 vss 20.1672e-18
c429 n6__net9 vss 20.1934e-18
c430 n8__net9 vss 14.4101e-18
c431 n5__net9 vss 18.5501e-18
c432 n4__y_out_2 vss 22.2699e-18
c433 n6__x_out_0 vss 21.6727e-18
c434 n3__i9__i4__net2 vss 31.9983e-18
c435 n10__x_out_2 vss 19.4809e-18
c436 n5__y_out_0 vss 19.5406e-18
c437 n5__net11 vss 23.4488e-18
c438 n2__ck_buff vss 20.4432e-18
c439 n7__net11 vss 19.6282e-18
c440 n9__net11 vss 23.4803e-18
c441 n9__x_out_2 vss 20.4211e-18
c442 n15__i14__net7 vss 22.1272e-18
c443 n5__i14__net11 vss 27.2098e-18
c444 n4__i14__x_out_b_1 vss 27.7594e-18
c445 n4__i14__y_out_b_1 vss 28.6974e-18
c446 n16__i14__net7 vss 17.7146e-18
c447 n17__i14__net11 vss 18.9796e-18
c448 n18__i14__net7 vss 18.6289e-18
c449 n19__i14__net11 vss 18.8816e-18
c450 n6__i14__i11__net4 vss 30.0395e-18
c451 n4__i14__i14__net4 vss 31.4048e-18
c452 n6__i14__i15__net4 vss 30.0628e-18
c453 n4__i14__i12__net4 vss 31.4291e-18
c454 n20__i14__net7 vss 18.9168e-18
c455 n21__i14__net11 vss 19.3893e-18
c456 n22__i14__net7 vss 18.5382e-18
c457 n23__i14__net11 vss 18.722e-18
c458 n5__i14__i11__net5 vss 23.0224e-18
c459 n5__i14__i15__net5 vss 23.0773e-18
c460 n14__i14__net7 vss 24.5584e-18
c461 n24__i14__net11 vss 24.3573e-18
c462 n6__i14__i11__net5 vss 26.3916e-18
c463 n7__i14__i14__net5 vss 26.3689e-18
c464 n6__i14__i15__net5 vss 26.3916e-18
c465 n7__i14__i12__net5 vss 26.3689e-18
c466 n29__i14__net4 vss 25.6151e-18
c467 n4__i14__net11 vss 30.4256e-18
c468 n21__i14__net4 vss 16.1491e-18
c469 n23__i14__net4 vss 16.1491e-18
c470 n25__i14__net4 vss 16.1491e-18
c471 n27__i14__net4 vss 16.1491e-18
c472 n41__i14__net4 vss 17.8866e-18
c473 n43__i14__net4 vss 14.9656e-18
c474 n4__i14__net7 vss 29.1935e-18
c475 n2__i14__i11__net4 vss 30.2474e-18
c476 n3__i14__i14__net4 vss 29.744e-18
c477 n2__i14__i15__net4 vss 30.2523e-18
c478 n3__i14__i12__net4 vss 29.744e-18
c479 n45__i14__net4 vss 20.5345e-18
c480 n47__i14__net4 vss 15.0491e-18
c481 n48__i14__net4 vss 25.4854e-18
c482 n50__i14__net9 vss 16.6823e-18
c483 n52__i14__net9 vss 16.6235e-18
c484 n54__i14__net9 vss 16.6823e-18
c485 n56__i14__net9 vss 16.6235e-18
c486 n36__reset vss 20.9185e-18
c487 n6__i14__i17__net11 vss 37.6501e-18
c488 n37__reset vss 19.2009e-18
c489 n5__i14__i11__net1 vss 26.819e-18
c490 n5__i14__i15__net1 vss 26.819e-18
c491 n15__i14__i17__net8 vss 40.9128e-18
c492 n39__reset vss 18.8696e-18
c493 n6__i14__i11__net1 vss 24.7933e-18
c494 n7__i14__i14__net1 vss 24.7688e-18
c495 n6__i14__i15__net1 vss 24.7933e-18
c496 n7__i14__i12__net1 vss 24.7677e-18
c497 n41__reset vss 15.8447e-18
c498 n43__reset vss 17.3733e-18
c499 n5__i14__i17__net10 vss 28.0174e-18
c500 n35__reset vss 21.7972e-18
c501 n5__i14__i17__net9 vss 29.0962e-18
c502 n4__i14__i17__net9 vss 27.8945e-18
c503 n2__i14__i17__net11 vss 50.4804e-18
c504 n2__i14__i11__net2 vss 28.9261e-18
c505 n3__i14__i14__net2 vss 28.2135e-18
c506 n2__i14__i15__net2 vss 28.9261e-18
c507 n3__i14__i12__net2 vss 28.2135e-18
c508 n4__i14__i17__net10 vss 30.6943e-18
c509 n10__i14__i17__net8 vss 28.7659e-18
c510 n30__i14__net10 vss 17.3312e-18
c511 n32__i14__net10 vss 17.3312e-18
c512 n34__i14__net10 vss 17.3312e-18
c513 n36__i14__net10 vss 17.3312e-18
c514 n17__i14__i17__net1 vss 26.8105e-18
c515 n6__i14__i17__net8 vss 25.5687e-18
c516 n6__i14__i17__i2__net4 vss 29.446e-18
c517 n4__i14__i17__i3__net4 vss 32.321e-18
c518 n4__i14__y_out_b_3 vss 30.4966e-18
c519 n4__i14__x_out_b_2 vss 30.4966e-18
c520 n5__i14__i17__i2__net5 vss 22.0518e-18
c521 n6__i14__i13__net4 vss 29.531e-18
c522 n4__i14__i16__net4 vss 30.9417e-18
c523 n6__i14__i10__net4 vss 29.5733e-18
c524 n4__i14__i9__net4 vss 30.9417e-18
c525 n6__i14__i17__i2__net5 vss 26.929e-18
c526 n7__i14__i17__i3__net5 vss 25.5608e-18
c527 n5__i14__i13__net5 vss 22.6899e-18
c528 n5__i14__i10__net5 vss 22.6899e-18
c529 n3__i14__i17__net6 vss 18.0505e-18
c530 n6__i14__i13__net5 vss 26.4304e-18
c531 n7__i14__i16__net5 vss 26.4079e-18
c532 n6__i14__i10__net5 vss 26.4304e-18
c533 n7__i14__i9__net5 vss 26.4079e-18
c534 n2__i14__i17__i2__net4 vss 30.5959e-18
c535 n3__i14__i17__i3__net4 vss 30.862e-18
c536 n3__i14__net4 vss 16.5107e-18
c537 n5__i14__net4 vss 16.5107e-18
c538 n7__i14__net4 vss 16.5107e-18
c539 n2__i14__i13__net4 vss 31.2785e-18
c540 n3__i14__i16__net4 vss 32.2898e-18
c541 n2__i14__i10__net4 vss 32.329e-18
c542 n3__i14__i9__net4 vss 32.2929e-18
c543 n4__i14__i17__net3 vss 19.1434e-18
c544 n4__i14__i17__net1 vss 19.0215e-18
c545 n5__i14__i17__i2__net1 vss 26.3223e-18
c546 n10__i14__net9 vss 16.9789e-18
c547 n12__i14__net9 vss 16.92e-18
c548 n14__i14__net9 vss 16.953e-18
c549 n16__i14__net9 vss 16.8941e-18
c550 n6__i14__i17__i2__net1 vss 24.8206e-18
c551 n7__i14__i17__i3__net1 vss 25.019e-18
c552 n5__i14__i13__net1 vss 26.2939e-18
c553 n5__i14__i10__net1 vss 26.2939e-18
c554 n6__i14__i13__net1 vss 25.5452e-18
c555 n7__i14__i16__net1 vss 25.5479e-18
c556 n6__i14__i10__net1 vss 25.5725e-18
c557 n7__i14__i9__net1 vss 25.5479e-18
c558 n2__i14__i17__i2__net2 vss 28.8734e-18
c559 n3__i14__i17__i3__net2 vss 28.3945e-18
c560 n2__i14__i13__net2 vss 31.2049e-18
c561 n3__i14__i16__net2 vss 30.5513e-18
c562 n2__i14__i10__net2 vss 31.2468e-18
c563 n3__i14__i9__net2 vss 30.4935e-18
c564 n5__ck vss 16.9411e-18
c565 n2__i14__i17__net7 vss 19.2894e-18
c566 n3__ck vss 20.0886e-18
c567 n1__reset vss 39.0429e-18
c568 n2__i14__net10 vss 17.4906e-18
c569 n4__i14__net10 vss 17.3679e-18
c570 n6__i14__net10 vss 17.4906e-18
c571 n8__i14__net10 vss 17.3679e-18
c572 n4__serial_out_b_high vss 34.9644e-18
c573 n6__i18__net1 vss 94.5229e-18
c574 n6__i12__bcore_bar vss 24.9238e-18
c575 n4__i12__bcore_bar vss 19.796e-18
c576 n9__i18__net2 vss 120.575e-18
c577 n2__i12__bcore_bar vss 24.7604e-18
c578 n11__i18__net2 vss 120.412e-18
c579 n12__i18__net2 vss 151.333e-18
c580 n6__serial_out vss 25.5124e-18
c581 n4__serial_out vss 19.9498e-18
c582 n2__serial_out vss 25.7759e-18
c583 n28__i18__net3 vss 201.604e-18
c584 n25__i18__net3 vss 163.292e-18
c585 n22__i18__net3 vss 163.861e-18
c586 n19__i18__net3 vss 164.265e-18
c587 n16__i18__net3 vss 164.324e-18
c588 n13__i18__net3 vss 164.224e-18
c589 n10__i18__net3 vss 163.526e-18
c590 n7__i18__net3 vss 164.124e-18
c591 n4__i18__net3 vss 168.529e-18
c592 n120__i18__net4 vss 246.967e-18
c593 n113__i18__net4 vss 199.451e-18
c594 n110__i18__net4 vss 195.584e-18
c595 n103__i18__net4 vss 194.808e-18
c596 n100__i18__net4 vss 190.226e-18
c597 n95__i18__net4 vss 195.806e-18
c598 n88__i18__net4 vss 190.344e-18
c599 n83__i18__net4 vss 196.313e-18
c600 n80__i18__net4 vss 196.137e-18
c601 n73__i18__net4 vss 203.622e-18
c602 n68__i18__net4 vss 191.099e-18
c603 n63__i18__net4 vss 195.982e-18
c604 n59__i18__net4 vss 196.177e-18
c605 n53__i18__net4 vss 195.706e-18
c606 n48__i18__net4 vss 193.047e-18
c607 n45__i18__net4 vss 190.777e-18
c608 n40__i18__net4 vss 204.367e-18
c609 n37__i18__net4 vss 192.339e-18
c610 n34__i18__net4 vss 205.562e-18
c611 n31__i18__net4 vss 196.401e-18
c612 n28__i18__net4 vss 190.565e-18
c613 n25__i18__net4 vss 196.829e-18
c614 n22__i18__net4 vss 195.193e-18
c615 n19__i18__net4 vss 196.706e-18
c616 n16__i18__net4 vss 195.451e-18
c617 n13__i18__net4 vss 194.07e-18
c618 n10__i18__net4 vss 196.725e-18
c619 n7__i18__net4 vss 213.263e-18
c620 n4__i18__net4 vss 200.378e-18
c621 n470__i18__net5 vss 246.4e-18
c622 n463__i18__net5 vss 218.318e-18
c623 n458__i18__net5 vss 200.679e-18
c624 n453__i18__net5 vss 209.875e-18
c625 n450__i18__net5 vss 212.044e-18
c626 n443__i18__net5 vss 207.86e-18
c627 n440__i18__net5 vss 212.07e-18
c628 n435__i18__net5 vss 259.097e-18
c629 n428__i18__net5 vss 213.494e-18
c630 n423__i18__net5 vss 206.842e-18
c631 n419__i18__net5 vss 211.834e-18
c632 n413__i18__net5 vss 211.585e-18
c633 n408__i18__net5 vss 208.696e-18
c634 n405__i18__net5 vss 211.678e-18
c635 n398__i18__net5 vss 207.158e-18
c636 n395__i18__net5 vss 209.718e-18
c637 n390__i18__net5 vss 209.948e-18
c638 n385__i18__net5 vss 211.616e-18
c639 n378__i18__net5 vss 209.399e-18
c640 n375__i18__net5 vss 212.334e-18
c641 n368__i18__net5 vss 215.142e-18
c642 n365__i18__net5 vss 209.133e-18
c643 n360__i18__net5 vss 207.992e-18
c644 n355__i18__net5 vss 213.419e-18
c645 n348__i18__net5 vss 213.233e-18
c646 n345__i18__net5 vss 211.359e-18
c647 n338__i18__net5 vss 213.387e-18
c648 n335__i18__net5 vss 211.603e-18
c649 n328__i18__net5 vss 213.88e-18
c650 n325__i18__net5 vss 213.339e-18
c651 n320__i18__net5 vss 212.118e-18
c652 n313__i18__net5 vss 212.654e-18
c653 n310__i18__net5 vss 211.369e-18
c654 n303__i18__net5 vss 211.617e-18
c655 n298__i18__net5 vss 214.309e-18
c656 n293__i18__net5 vss 212.053e-18
c657 n288__i18__net5 vss 214.269e-18
c658 n283__i18__net5 vss 211.851e-18
c659 n278__i18__net5 vss 212.468e-18
c660 n275__i18__net5 vss 211.427e-18
c661 n268__i18__net5 vss 213.373e-18
c662 n265__i18__net5 vss 211.577e-18
c663 n258__i18__net5 vss 213.896e-18
c664 n253__i18__net5 vss 213.416e-18
c665 n250__i18__net5 vss 212.142e-18
c666 n245__i18__net5 vss 212.514e-18
c667 n240__i18__net5 vss 211.596e-18
c668 n235__i18__net5 vss 211.618e-18
c669 n228__i18__net5 vss 214.171e-18
c670 n223__i18__net5 vss 212.018e-18
c671 n218__i18__net5 vss 214.327e-18
c672 n214__i18__net5 vss 211.866e-18
c673 n208__i18__net5 vss 212.443e-18
c674 n203__i18__net5 vss 212.038e-18
c675 n199__i18__net5 vss 212.683e-18
c676 n193__i18__net5 vss 211.443e-18
c677 n188__i18__net5 vss 213.326e-18
c678 n185__i18__net5 vss 211.631e-18
c679 n179__i18__net5 vss 213.817e-18
c680 n173__i18__net5 vss 213.361e-18
c681 n170__i18__net5 vss 212.116e-18
c682 n164__i18__net5 vss 212.654e-18
c683 n160__i18__net5 vss 211.333e-18
c684 n153__i18__net5 vss 211.617e-18
c685 n148__i18__net5 vss 214.309e-18
c686 n143__i18__net5 vss 212.013e-18
c687 n138__i18__net5 vss 214.354e-18
c688 n135__i18__net5 vss 211.942e-18
c689 n129__i18__net5 vss 226.891e-18
c690 n123__i18__net5 vss 212.784e-18
c691 n120__i18__net5 vss 211.535e-18
c692 n115__i18__net5 vss 211.539e-18
c693 n110__i18__net5 vss 210.537e-18
c694 n103__i18__net5 vss 214.21e-18
c695 n100__i18__net5 vss 211.86e-18
c696 n95__i18__net5 vss 213.741e-18
c697 n90__i18__net5 vss 211.605e-18
c698 n85__i18__net5 vss 210.871e-18
c699 n78__i18__net5 vss 213.2e-18
c700 n73__i18__net5 vss 211.507e-18
c701 n68__i18__net5 vss 214.027e-18
c702 n63__i18__net5 vss 213.474e-18
c703 n60__i18__net5 vss 211.903e-18
c704 n53__i18__net5 vss 212.28e-18
c705 n50__i18__net5 vss 207.468e-18
c706 n43__i18__net5 vss 207.593e-18
c707 n40__i18__net5 vss 207.296e-18
c708 n37__i18__net5 vss 208.134e-18
c709 n34__i18__net5 vss 207.043e-18
c710 n31__i18__net5 vss 209.874e-18
c711 n28__i18__net5 vss 207.552e-18
c712 n25__i18__net5 vss 209.512e-18
c713 n22__i18__net5 vss 207.103e-18
c714 n19__i18__net5 vss 206.551e-18
c715 n16__i18__net5 vss 209.051e-18
c716 n13__i18__net5 vss 207.159e-18
c717 n10__i18__net5 vss 209.757e-18
c718 n7__i18__net5 vss 208.901e-18
c719 n4__i18__net5 vss 213.233e-18
c720 n6__net7 vss 18.9555e-18
c721 n6__net8 vss 18.835e-18
c722 n7__net7 vss 12.7425e-18
c723 n8__net6 vss 13.0373e-18
c724 n7__net8 vss 12.8926e-18
c725 n9__net7 vss 16.5958e-18
c726 n10__net6 vss 16.8433e-18
c727 n9__net8 vss 18.0045e-18
c728 n13__r0 vss 23.8431e-18
c729 n5__r2 vss 23.8119e-18
c730 n4__r1 vss 25.0112e-18
c731 n11__serial_out vss 23.5754e-18
c732 n10__serial_out vss 20.8736e-18
c733 n8__net4 vss 20.5368e-18
c734 n9__net3 vss 19.4485e-18
c735 n6__i2__net77 vss 23.9163e-18
c736 n4__i1__net77 vss 24.2223e-18
c737 n6__i0__net77 vss 21.9733e-18
c738 n5__i2__net76 vss 17.6939e-18
c739 n5__i0__net76 vss 16.5918e-18
c740 n6__i2__net76 vss 22.2699e-18
c741 n7__i1__net76 vss 20.6176e-18
c742 n6__i0__net76 vss 20.3798e-18
c743 n2__i2__net77 vss 77.2528e-18
c744 n3__i1__net77 vss 72.4297e-18
c745 n2__i0__net77 vss 74.5151e-18
c746 n5__i13__net7 vss 19.8472e-18
c747 n29__ck_buff vss 23.4441e-18
c748 n31__ck_buff vss 22.9522e-18
c749 n33__ck_buff vss 22.9114e-18
c750 n5__i13__net18 vss 22.6068e-18
c751 n5__i2__net74 vss 19.7306e-18
c752 n5__i0__net74 vss 19.6883e-18
c753 n6__i2__net74 vss 21.2597e-18
c754 n7__i1__net74 vss 21.041e-18
c755 n6__i0__net74 vss 20.2427e-18
c756 n3__i13__net3 vss 26.8486e-18
c757 n21__reset_buff vss 23.0607e-18
c758 n23__reset_buff vss 22.6016e-18
c759 n25__reset_buff vss 25.8464e-18
c760 n4__i13__net23 vss 25.2829e-18
c761 n2__i2__net75 vss 76.7775e-18
c762 n3__i1__net75 vss 72.6882e-18
c763 n2__i0__net75 vss 79.3923e-18
c764 n4__i13__net17 vss 37.5384e-18
c765 n20__ck_b vss 20.5971e-18
c766 n22__ck_b vss 20.6807e-18
c767 n24__ck_b vss 24.0067e-18
c768 n5__i13__net11 vss 22.0186e-18
c769 n8__i13__net12 vss 20.404e-18
c770 n4__i2__net1 vss 23.8054e-18
c771 n4__i0__net1 vss 25.6771e-18
c772 n5__i13__net1 vss 23.4544e-18
c773 n8__i13__net2 vss 25.1079e-18
c774 n4__i13__i18__net1 vss 22.3134e-18
c775 n3__i2__net79 vss 24.7988e-18
c776 n3__i1__net79 vss 26.487e-18
c777 n3__i0__net79 vss 24.9697e-18
c778 n4__i13__net2 vss 30.9471e-18
c779 n13__shift vss 28.6265e-18
c780 n15__shift vss 28.6378e-18
c781 n17__shift vss 29.9074e-18
c782 n4__i13__net12 vss 44.6243e-18
c783 n4__shift vss 16.3964e-18
c784 n5__shift vss 16.6952e-18
c785 n12__shift vss 20.8009e-18
c786 n13__ck4 vss 25.6773e-18
c787 n14__ck4 vss 31.6317e-18
c788 n5__i13__a3 vss 21.5104e-18
c789 n8__i13__a1 vss 19.681e-18
c790 n4__i9__net1 vss 29.5295e-18
c791 n5__i9__net1 vss 22.8796e-18
c792 n8__net14 vss 12.338e-18
c793 n10__net14 vss 18.1111e-18
c794 n5__i13__a2 vss 24.9754e-18
c795 n8__i13__a0 vss 23.1981e-18
c796 n4__i9__net2 vss 22.6048e-18
c797 n8__net13 vss 11.1894e-18
c798 n55__reset vss 20.5564e-18
c799 n6__i9__i4__net4 vss 20.3419e-18
c800 n10__net13 vss 17.5575e-18
c801 n4__i13__i16__net1 vss 24.6348e-18
c802 n5__i9__i4__net5 vss 16.8267e-18
c803 n4__i13__a0 vss 34.3965e-18
c804 n54__reset vss 22.5257e-18
c805 n26__ck vss 23.836e-18
c806 n6__i9__i4__net5 vss 19.2595e-18
c807 n4__i13__a1 vss 40.9855e-18
c808 n7__net10 vss 17.3838e-18
c809 n2__i9__i4__net4 vss 75.2536e-18
c810 n9__net10 vss 13.5706e-18
c811 n10__net10 vss 16.3741e-18
c812 n4__y_out_1 vss 18.3043e-18
c813 n6__net12 vss 19.9996e-18
c814 n4__ck_buff vss 24.4505e-18
c815 n8__net12 vss 11.5919e-18
c816 n10__net12 vss 16.733e-18
c817 n5__i9__i4__net1 vss 19.4973e-18
c818 n25__ck vss 27.0715e-18
c819 n6__i9__i4__net1 vss 22.0225e-18
c820 n6__x_out_3 vss 20.7348e-18
c821 n9__x_out_1 vss 22.5276e-18
c822 n2__reset_buff vss 24.8792e-18
c823 n7__net9 vss 18.8002e-18
c824 n2__i9__i4__net2 vss 76.1202e-18
c825 n9__net9 vss 14.2491e-18
c826 n10__net9 vss 17.3294e-18
c827 n9__x_out_0 vss 17.9591e-18
c828 n6__net11 vss 17.2814e-18
c829 n2__ck_b vss 24.4814e-18
c830 n8__net11 vss 12.2146e-18
c831 n10__net11 vss 17.9378e-18
c832 n6__x_out_2 vss 22.2666e-18
c833 n4__y_out_0 vss 20.0412e-18
c834 n5__i14__net7 vss 16.6515e-18
c835 n15__i14__net11 vss 17.7757e-18
c836 n4__i14__y_out_b_2 vss 21.9734e-18
c837 n4__i14__x_out_b_0 vss 21.1594e-18
c838 n17__i14__net7 vss 12.0737e-18
c839 n16__i14__net11 vss 13.6268e-18
c840 n19__i14__net7 vss 11.8838e-18
c841 n18__i14__net11 vss 12.7931e-18
c842 n4__i14__i11__net4 vss 27.0659e-18
c843 n6__i14__i14__net4 vss 23.4914e-18
c844 n4__i14__i15__net4 vss 25.0942e-18
c845 n6__i14__i12__net4 vss 24.6787e-18
c846 n21__i14__net7 vss 11.8759e-18
c847 n20__i14__net11 vss 12.6114e-18
c848 n23__i14__net7 vss 11.8694e-18
c849 n22__i14__net11 vss 11.9394e-18
c850 n5__i14__i14__net5 vss 17.1594e-18
c851 n5__i14__i12__net5 vss 15.6966e-18
c852 n24__i14__net7 vss 17.3013e-18
c853 n14__i14__net11 vss 19.334e-18
c854 n7__i14__i11__net5 vss 21.708e-18
c855 n6__i14__i14__net5 vss 22.5411e-18